*Heading
** Job name: CT022 Model name: CT022
** Generated by: Abaqus/CAE 2020
*Preprint, echo=NO, model=NO, history=NO, contact=NO
**
** PARTS
**
*Part, name=Part-1
*Node
      1,         23.5,          1.5
      2,         62.5,          1.5
      3,         62.5,          30.
      4,         23.5,          30.
      5,         62.5,          0.5
      6,         23.5,          0.5
      7,   62.1100006,           0.
      8,         23.5,           0.
      9,         62.5,           0.
     10,          23.,          0.5
     11,          23.,           0.
     12,          22.,           0.
     13,          22.,          1.5
     14,           0.,          30.
     15,           0.,           0.
     16,         12.5,           0.
     17,        18.75,        13.75
     18,         6.25,        13.75
     19,   8.08058262,   18.1694183
     20,         12.5,          20.
** ... 22733 like lines cut
*Element, type=CPS4
   1,    1,   22, 2183,  287
   2,   22,   23, 2184, 2183
   3,   23,   24, 2185, 2184
   4,   24,   25, 2186, 2185
   5,   25,   26, 2187, 2186
   6,   26,   27, 2188, 2187
   7,   27,   28, 2189, 2188
   8,   28,   29, 2190, 2189
   9,   29,   30, 2191, 2190
  10,   30,   31, 2192, 2191
  11,   31,   32, 2193, 2192
  12,   32,   33, 2194, 2193
  13,   33,   34, 2195, 2194
  14,   34,   35, 2196, 2195
  15,   35,   36, 2197, 2196
  16,   36,   37, 2198, 2197
  17,   37,   38, 2199, 2198
  18,   38,   39, 2200, 2199
  19,   39,   40, 2201, 2200
  20,   40,   41, 2202, 2201
** ... 22118 like lines cut
*Nset, nset=Set-1, generate
     1,  22753,      1
*Elset, elset=Set-1, generate
     1,  22138,      1
*Elset, elset=_Surf-1_S4, internal
 12593, 12649, 12662, 12663, 13203, 13785, 13786, 13787, 13788, 13789, 13790, 13791, 13793, 13795, 13796, 13797
 13799, 13801, 13803, 13805, 13807, 13809, 13810, 13851, 13870
*Elset, elset=_Surf-1_S2, internal
 12608, 12609, 12623, 12624, 12636, 12650, 12677, 13201, 13205, 13206, 13436, 13784, 13792, 13794, 13798, 13800
 13802, 13804, 13806, 13808, 13830, 13861, 13868, 13871, 13877
*Surface, type=ELEMENT, name=Surf-1
_Surf-1_S4, S4
_Surf-1_S2, S2
*Elset, elset=_Surf-2_S3, internal, generate
 11467,  12246,      1
*Surface, type=ELEMENT, name=Surf-2
_Surf-2_S3, S3
*Elset, elset=_Surf-3_S3, internal, generate
 11467,  11474,      1
*Surface, type=ELEMENT, name=Surf-3
_Surf-3_S3, S3
** Section: Section-1
*Solid Section, elset=Set-1, material=Material-1
,
*End Part
**  
**
** ASSEMBLY
**
*Assembly, name=Assembly
**  
*Instance, name=Part-1-1, part=Part-1
*End Instance
**  
*Nset, nset=Set-1, instance=Part-1-1
    7,    8,    9, 1076, 1077, 1078, 1079, 1080, 1081, 1082, 1083, 1084, 1085, 1086, 1087, 1088
 1089, 1090, 1091, 1092, 1093, 1094, 1095, 1096, 1097, 1098, 1099, 1100, 1101, 1102, 1103, 1104
 1105, 1106, 1107, 1108, 1109, 1110, 1111, 1112, 1113, 1114, 1115, 1116, 1117, 1118, 1119, 1120
 1121, 1122, 1123, 1124, 1125, 1126, 1127, 1128, 1129, 1130, 1131, 1132, 1133, 1134, 1135, 1136
 1137, 1138, 1139, 1140, 1141, 1142, 1143, 1144, 1145, 1146, 1147, 1148, 1149, 1150, 1151, 1152
 1153, 1154, 1155, 1156, 1157, 1158, 1159, 1160, 1161, 1162, 1163, 1164, 1165, 1166, 1167, 1168
 1169, 1170, 1171, 1172, 1173, 1174, 1175, 1176, 1177, 1178, 1179, 1180, 1181, 1182, 1183, 1184
 1185, 1186, 1187, 1188, 1189, 1190, 1191, 1192, 1193, 1194, 1195, 1196, 1197, 1198, 1199, 1200
 1201, 1202, 1203, 1204, 1205, 1206, 1207, 1208, 1209, 1210, 1211, 1212, 1213, 1214, 1215, 1216
 1217, 1218, 1219, 1220, 1221, 1222, 1223, 1224, 1225, 1226, 1227, 1228, 1229, 1230, 1231, 1232
 1233, 1234, 1235, 1236, 1237, 1238, 1239, 1240, 1241, 1242, 1243, 1244, 1245, 1246, 1247, 1248
 1249, 1250, 1251, 1252, 1253, 1254, 1255, 1256, 1257, 1258, 1259, 1260, 1261, 1262, 1263, 1264
 1265, 1266, 1267, 1268, 1269, 1270, 1271, 1272, 1273, 1274, 1275, 1276, 1277, 1278, 1279, 1280
 1281, 1282, 1283, 1284, 1285, 1286, 1287, 1288, 1289, 1290, 1291, 1292, 1293, 1294, 1295, 1296
 1297, 1298, 1299, 1300, 1301, 1302, 1303, 1304, 1305, 1306, 1307, 1308, 1309, 1310, 1311, 1312
 1313, 1314, 1315, 1316, 1317, 1318, 1319, 1320, 1321, 1322, 1323, 1324, 1325, 1326, 1327, 1328
 1329, 1330, 1331, 1332, 1333, 1334, 1335, 1336, 1337, 1338, 1339, 1340, 1341, 1342, 1343, 1344
 1345, 1346, 1347, 1348, 1349, 1350, 1351, 1352, 1353, 1354, 1355, 1356, 1357, 1358, 1359, 1360
 1361, 1362, 1363, 1364, 1365, 1366, 1367, 1368, 1369, 1370, 1371, 1372, 1373, 1374, 1375, 1376
 1377, 1378, 1379, 1380, 1381, 1382, 1383, 1384, 1385, 1386, 1387, 1388, 1389, 1390, 1391, 1392
** ... 29 like lines cut
*Elset, elset=Set-1, instance=Part-1-1, generate
 11467,  12246,      1
*Nset, nset=Set-2, instance=Part-1-1
    7,    9, 1076, 1077, 1078, 1079, 1080, 1081, 1082
*Elset, elset=Set-2, instance=Part-1-1, generate
 11467,  11474,      1
*Elset, elset=_Surf-1_S4, internal, instance=Part-1-1
 12593, 12649, 12662, 12663, 13203, 13785, 13786, 13787, 13788, 13789, 13790, 13791, 13793, 13795, 13796, 13797
 13799, 13801, 13803, 13805, 13807, 13809, 13810, 13851, 13870
*Elset, elset=_Surf-1_S2, internal, instance=Part-1-1
 12608, 12609, 12623, 12624, 12636, 12650, 12677, 13201, 13205, 13206, 13436, 13784, 13792, 13794, 13798, 13800
 13802, 13804, 13806, 13808, 13830, 13861, 13868, 13871, 13877
*Surface, type=ELEMENT, name=Surf-1
_Surf-1_S4, S4
_Surf-1_S2, S2
*Elset, elset=_Surf-2_S3, internal, instance=Part-1-1, generate
 11467,  12246,      1
*Surface, type=ELEMENT, name=Surf-2
_Surf-2_S3, S3
*Elset, elset=_Surf-3_S3, internal, instance=Part-1-1, generate
 11467,  11474,      1
*Surface, type=ELEMENT, name=Surf-3
_Surf-3_S3, S3
*End Assembly
** 
** MATERIALS
** 
*Material, name=Material-1
*Elastic
6000., 0.22
** ----------------------------------------------------------------
** 
** STEP: Step-1
** 
*Step, name=Step-1, nlgeom=NO
*Static
1., 1., 1e-05, 1.
** 
** BOUNDARY CONDITIONS
** 
** Name: BC-1 Type: Displacement/Rotation
*Boundary
Set-1, 2, 2
** Name: BC-2 Type: Displacement/Rotation
*Boundary
Set-2, 1, 1
** 
** OUTPUT REQUESTS
** 
*Restart, write, frequency=0
** 
** FIELD OUTPUT: F-Output-1
** 
*Output, field, variable=PRESELECT
** 
** HISTORY OUTPUT: H-Output-1
** 
*Output, history, variable=PRESELECT
*End Step
