*Heading
** Job name: CT022 Model name: CT022
** Generated by: Abaqus/CAE 2020
*Preprint, echo=NO, model=NO, history=NO, contact=NO
**
** PARTS
**
*Part, name=Part-1
*Node
      1,   6.42268801,    12.290966
      2,   6.93120909,   10.9125595
      3,   7.74746275,   9.69094944
      4,   8.44094944,   8.99746227
      5,   9.66255951,   8.18120956
      6,    11.040966,   7.67268801
      7,         12.5,          7.5
      8,    13.959034,   7.67268801
      9,   15.3374405,   8.18120956
     10,   16.5590496,   8.99746227
     11,   17.2525368,   9.69094944
     12,   18.0687904,   10.9125595
     13,   18.5773125,    12.290966
     14,         6.25,        13.75
     15,        18.75,        13.75
     16,   7.17099905,   17.0156155
     17,   6.72575283,   16.1417713
     18,   6.42268801,    15.209034
     19,   8.08058262,   18.1694183
     20,   11.5222845,   19.9230518
** ... 8813 like lines cut
*Element, type=CPS4
   1, 2313, 2345, 5319,  930
   2, 1952,  206, 2346, 2347
   3, 2311, 2348, 2428,  932
   4, 2310, 2349, 2429,  933
   5, 2310,  933, 2425, 2350
   6,  935, 2895, 2755, 2641
   7, 2146, 2291, 2418,  936
   8, 2146,  936, 2394, 2292
   9,  167, 1907, 2017, 2294
  10,  168, 1908, 2018, 2295
  11,  169, 1909, 2145, 2296
  12,  170, 1910, 2144, 2297
  13,  171, 1911, 2143, 2298
  14, 1913, 1912, 2299, 2019
  15, 2300, 2020, 1914,  172
  16, 2301, 2021, 1915,  173
  17, 7348, 4365, 4517, 7367
  18, 7470, 7478, 4549, 1005
  19, 3918, 1123, 4032, 4221
  20, 3354, 3548, 3496, 1239
** ... 8588 like lines cut
*Nset, nset=Set-1, generate
    1,  8833,     1
*Elset, elset=Set-1, generate
    1,  8608,     1
*Elset, elset=_Surf-1_S2, internal
  225,  226,  227,  238,  248,  249,  259,  281, 2970, 2971, 2974, 3116
*Elset, elset=_Surf-1_S1, internal
 1956,
*Elset, elset=_Surf-1_S4, internal
  279,  280, 1023, 2054, 2972, 2973, 2975
*Surface, type=ELEMENT, name=Surf-1
_Surf-1_S2, S2
_Surf-1_S1, S1
_Surf-1_S4, S4
*Elset, elset=_Surf-2_S1, internal
    2,  286,  291,  292,  293,  298,  300,  301,  302,  304,  306,  308, 1202, 1203, 1204, 1205
 1206, 1243, 1251, 1263, 1267, 1268, 1273, 1278, 1285, 1286, 1287, 1289, 1290, 1291, 1292, 1294
 3396, 3398, 3399, 3400, 3401, 3403, 3405, 3408, 3409, 3433
*Elset, elset=_Surf-2_S3, internal
  290,  299,  303,  305,  307,  345, 1201, 1235, 1258, 1271, 1277, 1281, 1283, 1288, 1293, 3095
 3096, 3098, 3099, 3100, 3101, 3102, 3103, 3104, 3105, 3106, 3107, 3108, 3390, 3394, 3395, 3407
 3417, 3418, 3420, 3435
*Surface, type=ELEMENT, name=Surf-2
_Surf-2_S1, S1
_Surf-2_S3, S3
*Elset, elset=_Surf-3_S1, internal
 286,
*Surface, type=ELEMENT, name=Surf-3
_Surf-3_S1, S1
** Section: Section-1
*Solid Section, elset=Set-1, material=Material-1
,
*End Part
**  
**
** ASSEMBLY
**
*Assembly, name=Assembly
**  
*Instance, name=Part-1-1, part=Part-1
*End Instance
**  
*Nset, nset=Set-1, instance=Part-1-1
   31,   32,  174,  175,  176,  177,  178,  179,  180,  181,  182,  183,  184,  185,  186,  187
  188,  189,  190,  191,  192,  193,  194,  195,  196,  197,  198,  199,  200,  201,  202,  203
  204,  205,  206,  207,  208,  209, 1916, 1917, 1918, 1919, 1920, 1921, 1922, 1923, 1924, 1925
 1926, 1927, 1928, 1929, 1930, 1931, 1932, 1933, 1934, 1935, 1936, 1937, 1938, 1939, 1940, 1941
 1942, 1943, 1944, 1945, 1946, 1947, 1948, 1949, 1950, 1951, 1952, 1953, 1954, 1955, 1956
*Elset, elset=Set-1, instance=Part-1-1
    2,  286,  290,  291,  292,  293,  298,  299,  300,  301,  302,  303,  304,  305,  306,  307
  308,  345, 1201, 1202, 1203, 1204, 1205, 1206, 1235, 1243, 1251, 1258, 1263, 1267, 1268, 1271
 1273, 1277, 1278, 1281, 1283, 1285, 1286, 1287, 1288, 1289, 1290, 1291, 1292, 1293, 1294, 3095
 3096, 3098, 3099, 3100, 3101, 3102, 3103, 3104, 3105, 3106, 3107, 3108, 3390, 3394, 3395, 3396
 3398, 3399, 3400, 3401, 3403, 3405, 3407, 3408, 3409, 3417, 3418, 3420, 3433, 3435
*Nset, nset=Set-2, instance=Part-1-1
 31, 32
*Elset, elset=Set-2, instance=Part-1-1
 286,
*Elset, elset=_Surf-1_S2, internal, instance=Part-1-1
  225,  226,  227,  238,  248,  249,  259,  281, 2970, 2971, 2974, 3116
*Elset, elset=_Surf-1_S1, internal, instance=Part-1-1
 1956,
*Elset, elset=_Surf-1_S4, internal, instance=Part-1-1
  279,  280, 1023, 2054, 2972, 2973, 2975
*Surface, type=ELEMENT, name=Surf-1
_Surf-1_S2, S2
_Surf-1_S1, S1
_Surf-1_S4, S4
*Elset, elset=_Surf-2_S1, internal, instance=Part-1-1
    2,  286,  291,  292,  293,  298,  300,  301,  302,  304,  306,  308, 1202, 1203, 1204, 1205
 1206, 1243, 1251, 1263, 1267, 1268, 1273, 1278, 1285, 1286, 1287, 1289, 1290, 1291, 1292, 1294
 3396, 3398, 3399, 3400, 3401, 3403, 3405, 3408, 3409, 3433
*Elset, elset=_Surf-2_S3, internal, instance=Part-1-1
  290,  299,  303,  305,  307,  345, 1201, 1235, 1258, 1271, 1277, 1281, 1283, 1288, 1293, 3095
 3096, 3098, 3099, 3100, 3101, 3102, 3103, 3104, 3105, 3106, 3107, 3108, 3390, 3394, 3395, 3407
 3417, 3418, 3420, 3435
*Surface, type=ELEMENT, name=Surf-2
_Surf-2_S1, S1
_Surf-2_S3, S3
*Elset, elset=_Surf-3_S1, internal, instance=Part-1-1
 286,
*Surface, type=ELEMENT, name=Surf-3
_Surf-3_S1, S1
*End Assembly
** 
** MATERIALS
** 
*Material, name=Material-1
*Elastic
6000., 0.22
** ----------------------------------------------------------------
** 
** STEP: Step-1
** 
*Step, name=Step-1, nlgeom=NO
*Static
1., 1., 1e-05, 1.
** 
** BOUNDARY CONDITIONS
** 
** Name: BC-1 Type: Displacement/Rotation
*Boundary
Set-1, 2, 2
** Name: BC-2 Type: Displacement/Rotation
*Boundary
Set-2, 1, 1
** 
** OUTPUT REQUESTS
** 
*Restart, write, frequency=0
** 
** FIELD OUTPUT: F-Output-1
** 
*Output, field, variable=PRESELECT
** 
** HISTORY OUTPUT: H-Output-1
** 
*Output, history, variable=PRESELECT
*End Step
