*Heading
** Job name: CT022L5 Model name: CT022L5
** Generated by: Abaqus/CAE 2020
*Preprint, echo=NO, model=NO, history=NO, contact=NO
**
** PARTS
**
*Part, name=Part-1
*Node
      1,         23.5,          1.5
      2,         62.5,          1.5
      3,         62.5,          30.
      4,         23.5,          30.
      5,         62.5,          0.5
      6,         23.5,          0.5
      7,   62.1100006,           0.
      8,         23.5,           0.
      9,         62.5,           0.
     10,          23.,          0.5
     11,          23.,           0.
     12,          22.,           0.
     13,          22.,          1.5
     14,           0.,          30.
     15,           0.,           0.
     16,         12.5,           0.
     17,        18.75,        13.75
     18,         6.25,        13.75
     19,   8.08058262,   18.1694183
     20,         12.5,          20.
** ... 30408 like lines cut
*Element, type=CPS4
   1,    1,   22, 2590,  287
   2,   22,   23, 2591, 2590
   3,   23,   24, 2592, 2591
   4,   24,   25, 2593, 2592
   5,   25,   26, 2594, 2593
   6,   26,   27, 2595, 2594
   7,   27,   28, 2596, 2595
   8,   28,   29, 2597, 2596
   9,   29,   30, 2598, 2597
  10,   30,   31, 2599, 2598
  11,   31,   32, 2600, 2599
  12,   32,   33, 2601, 2600
  13,   33,   34, 2602, 2601
  14,   34,   35, 2603, 2602
  15,   35,   36, 2604, 2603
  16,   36,   37, 2605, 2604
  17,   37,   38, 2606, 2605
  18,   38,   39, 2607, 2606
  19,   39,   40, 2608, 2607
  20,   40,   41, 2609, 2608
** ... 29692 like lines cut
*Nset, nset=Set-1, generate
     1,  30428,      1
*Elset, elset=Set-1, generate
     1,  29712,      1
*Elset, elset=_Surf-1_S4, internal
 17537, 17593, 17606, 17607, 18147, 18729, 18730, 18731, 18732, 18733, 18734, 18735, 18737, 18739, 18740, 18741
 18743, 18745, 18747, 18749, 18751, 18753, 18754, 18795, 18814
*Elset, elset=_Surf-1_S2, internal
 17552, 17553, 17567, 17568, 17580, 17594, 17621, 18145, 18149, 18150, 18380, 18728, 18736, 18738, 18742, 18744
 18746, 18748, 18750, 18752, 18774, 18805, 18812, 18815, 18821
*Surface, type=ELEMENT, name=Surf-1
_Surf-1_S4, S4
_Surf-1_S2, S2
*Elset, elset=_Surf-2_S3, internal, generate
 16147,  17121,      1
*Surface, type=ELEMENT, name=Surf-2
_Surf-2_S3, S3
*Elset, elset=_Surf-3_S3, internal, generate
 16147,  16156,      1
*Surface, type=ELEMENT, name=Surf-3
_Surf-3_S3, S3
** Section: Section-1
*Solid Section, elset=Set-1, material=Material-1
,
*End Part
**  
**
** ASSEMBLY
**
*Assembly, name=Assembly
**  
*Instance, name=Part-1-1, part=Part-1
*End Instance
**  
*Nset, nset=Set-1, instance=Part-1-1
    7,    8,    9, 1274, 1275, 1276, 1277, 1278, 1279, 1280, 1281, 1282, 1283, 1284, 1285, 1286
 1287, 1288, 1289, 1290, 1291, 1292, 1293, 1294, 1295, 1296, 1297, 1298, 1299, 1300, 1301, 1302
 1303, 1304, 1305, 1306, 1307, 1308, 1309, 1310, 1311, 1312, 1313, 1314, 1315, 1316, 1317, 1318
 1319, 1320, 1321, 1322, 1323, 1324, 1325, 1326, 1327, 1328, 1329, 1330, 1331, 1332, 1333, 1334
 1335, 1336, 1337, 1338, 1339, 1340, 1341, 1342, 1343, 1344, 1345, 1346, 1347, 1348, 1349, 1350
 1351, 1352, 1353, 1354, 1355, 1356, 1357, 1358, 1359, 1360, 1361, 1362, 1363, 1364, 1365, 1366
 1367, 1368, 1369, 1370, 1371, 1372, 1373, 1374, 1375, 1376, 1377, 1378, 1379, 1380, 1381, 1382
 1383, 1384, 1385, 1386, 1387, 1388, 1389, 1390, 1391, 1392, 1393, 1394, 1395, 1396, 1397, 1398
 1399, 1400, 1401, 1402, 1403, 1404, 1405, 1406, 1407, 1408, 1409, 1410, 1411, 1412, 1413, 1414
 1415, 1416, 1417, 1418, 1419, 1420, 1421, 1422, 1423, 1424, 1425, 1426, 1427, 1428, 1429, 1430
 1431, 1432, 1433, 1434, 1435, 1436, 1437, 1438, 1439, 1440, 1441, 1442, 1443, 1444, 1445, 1446
 1447, 1448, 1449, 1450, 1451, 1452, 1453, 1454, 1455, 1456, 1457, 1458, 1459, 1460, 1461, 1462
 1463, 1464, 1465, 1466, 1467, 1468, 1469, 1470, 1471, 1472, 1473, 1474, 1475, 1476, 1477, 1478
 1479, 1480, 1481, 1482, 1483, 1484, 1485, 1486, 1487, 1488, 1489, 1490, 1491, 1492, 1493, 1494
 1495, 1496, 1497, 1498, 1499, 1500, 1501, 1502, 1503, 1504, 1505, 1506, 1507, 1508, 1509, 1510
 1511, 1512, 1513, 1514, 1515, 1516, 1517, 1518, 1519, 1520, 1521, 1522, 1523, 1524, 1525, 1526
 1527, 1528, 1529, 1530, 1531, 1532, 1533, 1534, 1535, 1536, 1537, 1538, 1539, 1540, 1541, 1542
 1543, 1544, 1545, 1546, 1547, 1548, 1549, 1550, 1551, 1552, 1553, 1554, 1555, 1556, 1557, 1558
 1559, 1560, 1561, 1562, 1563, 1564, 1565, 1566, 1567, 1568, 1569, 1570, 1571, 1572, 1573, 1574
 1575, 1576, 1577, 1578, 1579, 1580, 1581, 1582, 1583, 1584, 1585, 1586, 1587, 1588, 1589, 1590
** ... 41 like lines cut
*Elset, elset=Set-1, instance=Part-1-1, generate
 16147,  17121,      1
*Nset, nset=Set-2, instance=Part-1-1
    7,    9, 1274, 1275, 1276, 1277, 1278, 1279, 1280, 1281, 1282
*Elset, elset=Set-2, instance=Part-1-1, generate
 16147,  16156,      1
*Elset, elset=_Surf-1_S4, internal, instance=Part-1-1
 17537, 17593, 17606, 17607, 18147, 18729, 18730, 18731, 18732, 18733, 18734, 18735, 18737, 18739, 18740, 18741
 18743, 18745, 18747, 18749, 18751, 18753, 18754, 18795, 18814
*Elset, elset=_Surf-1_S2, internal, instance=Part-1-1
 17552, 17553, 17567, 17568, 17580, 17594, 17621, 18145, 18149, 18150, 18380, 18728, 18736, 18738, 18742, 18744
 18746, 18748, 18750, 18752, 18774, 18805, 18812, 18815, 18821
*Surface, type=ELEMENT, name=Surf-1
_Surf-1_S4, S4
_Surf-1_S2, S2
*Elset, elset=_Surf-2_S3, internal, instance=Part-1-1, generate
 16147,  17121,      1
*Surface, type=ELEMENT, name=Surf-2
_Surf-2_S3, S3
*Elset, elset=_Surf-3_S3, internal, instance=Part-1-1, generate
 16147,  16156,      1
*Surface, type=ELEMENT, name=Surf-3
_Surf-3_S3, S3
*End Assembly
** 
** MATERIALS
** 
*Material, name=Material-1
*Elastic
6000., 0.22
** ----------------------------------------------------------------
** 
** STEP: Step-1
** 
*Step, name=Step-1, nlgeom=NO
*Static
1., 1., 1e-05, 1.
** 
** BOUNDARY CONDITIONS
** 
** Name: BC-1 Type: Displacement/Rotation
*Boundary
Set-1, 2, 2
** Name: BC-2 Type: Displacement/Rotation
*Boundary
Set-2, 1, 1
** 
** OUTPUT REQUESTS
** 
*Restart, write, frequency=0
** 
** FIELD OUTPUT: F-Output-1
** 
*Output, field, variable=PRESELECT
** 
** HISTORY OUTPUT: H-Output-1
** 
*Output, history, variable=PRESELECT
*End Step
