*Heading
** Job name: CT05 Model name: Model-1
** Generated by: Abaqus/CAE 2020
*Preprint, echo=NO, model=NO, history=NO, contact=NO
**
** PARTS
**
*Part, name=Part-1
*Node
      1,         37.5,          30.
      2,         62.5,          30.
      3,         62.5,          60.
      4,           0.,          60.
      5,           0.,      31.5625
      6,      30.9375,      31.5625
      7,         32.5,   30.0009995
      8,   16.9194183,   48.1694183
      9,        18.75,        43.75
     10,         6.25,        43.75
     11,   8.08058262,   48.1694183
     12,         12.5,          50.
     13,         32.5,   29.9990005
     14,      30.9375,      28.4375
     15,           0.,      28.4375
     16,           0.,           0.
     17,         62.5,           0.
     18,         6.25,        16.25
     19,        18.75,        16.25
     20,   16.9194183,   11.8305826
** ... 17138 like lines cut
*Element, type=CPS4R
   1, 2425,   28,   29, 2561
   2,   28, 2425, 2424,   27
   3, 3982, 7486, 4071, 7459
   4, 7487,  897, 3151,  869
   5, 3538, 7622, 3417,  897
   6, 3737, 3858, 4049, 3625
   7, 4187, 4308, 1067, 4244
   8, 7368, 1125, 7313, 7088
   9, 1181, 6880, 6882, 6883
  10, 7082, 5552, 6881, 1181
  11, 1237, 5546, 5584, 6877
  12, 5652, 5624, 1280, 5673
  13, 5757, 8686, 5831, 8661
  14, 5854, 5831, 1365, 5896
  15, 6047, 6055, 6080, 1448
  16, 6105, 6123, 1488, 6136
  17, 6183, 8874, 1527, 6169
  18, 6198, 6210, 6480, 1566
  19, 6246, 6455, 6234, 8810
  20, 6267, 6437, 6442, 1647
** ... 16741 like lines cut
*Nset, nset=Set-1, generate
     1,  17158,      1
*Elset, elset=Set-1, generate
     1,  16761,      1
*Elset, elset=_Surf-1_S1, internal
   95,   96, 1076, 1132, 1523, 1524, 1571, 1582, 1583, 2391, 2392, 2981, 2984, 3009, 3012
*Elset, elset=_Surf-1_S3, internal
 1585, 1586, 2344, 2345, 2982
*Surface, type=ELEMENT, name=Surf-1
_Surf-1_S1, S1
_Surf-1_S3, S3
*Elset, elset=_Surf-2_S4, internal
  8796,  9590,  9610,  9611, 10382, 11293, 11294, 11296, 11297, 11299, 11307
*Elset, elset=_Surf-2_S3, internal
 9578,
*Elset, elset=_Surf-2_S2, internal
  9580,  9589,  9591,  9592,  9612, 11295, 11298, 11332
*Surface, type=ELEMENT, name=Surf-2
_Surf-2_S4, S4
_Surf-2_S3, S3
_Surf-2_S2, S2
** Section: Section-1
*Solid Section, elset=Set-1, material=Material-1
,
*End Part
**  
**
** ASSEMBLY
**
*Assembly, name=Assembly
**  
*Instance, name=Part-1-1, part=Part-1
*End Instance
**  
*Nset, nset=Set-2, instance=Part-1-1
  20,  21,  22, 819, 820, 821, 822, 823, 824, 825, 826, 827, 828, 829, 830, 831
 832, 833, 834, 835, 836
*Elset, elset=Set-2, instance=Part-1-1
  8796,  9578,  9580,  9589,  9590,  9591,  9592,  9610,  9611,  9612, 10382, 11293, 11294, 11295, 11296, 11297
 11298, 11299, 11307, 11332
*Nset, nset=Set-3, instance=Part-1-1
   8,  11,  12, 441, 442, 443, 444, 445, 446, 447, 448, 449, 450, 451, 452, 453
 454, 455, 456, 457, 458
*Elset, elset=Set-3, instance=Part-1-1
   95,   96, 1076, 1132, 1523, 1524, 1571, 1582, 1583, 1585, 1586, 2344, 2345, 2391, 2392, 2981
 2982, 2984, 3009, 3012
*End Assembly
** 
** MATERIALS
** 
*Material, name=Material-1
*Elastic
6000., 0.22
** ----------------------------------------------------------------
** 
** STEP: Step-1
** 
*Step, name=Step-1, nlgeom=NO
*Static
1., 1., 1e-05, 1.
** 
** BOUNDARY CONDITIONS
** 
** Name: BC-1 Type: Displacement/Rotation
*Boundary
Set-2, 1, 1
Set-2, 2, 2
** Name: BC-2 Type: Displacement/Rotation
*Boundary
Set-3, 1, 1
Set-3, 2, 2, 1.
** 
** OUTPUT REQUESTS
** 
*Restart, write, frequency=0
** 
** FIELD OUTPUT: F-Output-1
** 
*Output, field, variable=PRESELECT
** 
** HISTORY OUTPUT: H-Output-1
** 
*Output, history, variable=PRESELECT
*End Step
