*Heading
** Job name: CurveLeftRight Model name: Model-2
** Generated by: Abaqus/CAE 2020
*Preprint, echo=NO, model=NO, history=NO, contact=NO
**
** PARTS
**
*Part, name=Part-1
*Node
      1,           0.,           1.
      2, 0.0136338184,  0.985282004
      3, 0.0268551745,  0.970192373
      4,  0.039653942,   0.95474273
      5, 0.0520203263,  0.938944817
      6, 0.0639448538,  0.922810793
      7, 0.0754183829,  0.906352997
      8, 0.0864321515,  0.889584064
      9, 0.0969777033,  0.872516751
     10,  0.107046969,   0.85516423
     11,  0.116632245,  0.837539732
     12,  0.125726193,   0.81965673
     13,  0.134321839,   0.80152899
     14,  0.142412603,  0.783170283
     15,  0.149992287,  0.764594793
     16,  0.157055095,  0.745816708
     17,  0.163595617,  0.726850331
     18,  0.169608831,  0.707710266
     19,  0.175090164,  0.688411176
     20,  0.180035383,  0.668967783
** ... 2836 like lines cut
*Element, type=CPE4
   1,    1,    2,   58,   57
   2,    2,    3,   59,   58
   3,    3,    4,   60,   59
   4,    4,    5,   61,   60
   5,    5,    6,   62,   61
   6,    6,    7,   63,   62
   7,    7,    8,   64,   63
   8,    8,    9,   65,   64
   9,    9,   10,   66,   65
  10,   10,   11,   67,   66
  11,   11,   12,   68,   67
  12,   12,   13,   69,   68
  13,   13,   14,   70,   69
  14,   14,   15,   71,   70
  15,   15,   16,   72,   71
  16,   16,   17,   73,   72
  17,   17,   18,   74,   73
  18,   18,   19,   75,   74
  19,   19,   20,   76,   75
  20,   20,   21,   77,   76
** ... 2730 like lines cut
*Nset, nset=Set-1, generate
    1,  2856,     1
*Elset, elset=Set-1, generate
    1,  2750,     1
*Elset, elset=_Surf-1_S4, internal, generate
    1,  2696,    55
*Surface, type=ELEMENT, name=Surf-1
_Surf-1_S4, S4
*Elset, elset=_Surf-2_S2, internal, generate
   55,  2750,    55
*Surface, type=ELEMENT, name=Surf-2
_Surf-2_S2, S2
** Section: Section-1
*Solid Section, elset=Set-1, material=Material-1
,
*End Part
**  
**
** ASSEMBLY
**
*Assembly, name=Assembly
**  
*Instance, name=Part-1-1, part=Part-1
*End Instance
**  
*Nset, nset=Set-1, instance=Part-1-1, generate
   56,  2856,    56
*Elset, elset=Set-1, instance=Part-1-1, generate
   55,  2750,    55
*Nset, nset=Set-2, instance=Part-1-1, generate
    1,  2801,    56
*Elset, elset=Set-2, instance=Part-1-1, generate
    1,  2696,    55
*End Assembly
** 
** MATERIALS
** 
*Material, name=Material-1
*Elastic
2000., 0.3
** ----------------------------------------------------------------
** 
** STEP: Step-1
** 
*Step, name=Step-1, nlgeom=NO
*Static
1., 1., 1e-05, 1.
** 
** BOUNDARY CONDITIONS
** 
** Name: BC-1 Type: Displacement/Rotation
*Boundary
Set-1, 1, 1
Set-1, 2, 2
** Name: BC-2 Type: Displacement/Rotation
*Boundary
Set-2, 1, 1
Set-2, 2, 2, 0.0001
** 
** OUTPUT REQUESTS
** 
*Restart, write, frequency=0
** 
** FIELD OUTPUT: F-Output-1
** 
*Output, field, variable=PRESELECT
** 
** HISTORY OUTPUT: H-Output-1
** 
*Output, history, variable=PRESELECT
*End Step
