*Heading
** Job name: singleNotch Model name: singleNotch
** Generated by: Abaqus/CAE 2020
*Preprint, echo=NO, model=NO, history=NO, contact=NO
**
** PARTS
**
*Part, name=Part-1
*Node
      1,  0.349999994,           0.
      2,  0.349999994,  0.349999994
      3,           0.,  0.349999994
      4,           0.,           0.
      5,  0.400000006,           0.
      6,  0.400000006,  0.349999994
      7,  0.349999994,  0.400000006
      8,           0.,  0.400000006
      9,           1.,           0.
     10,           1.,  0.349999994
     11,  0.349999994,  0.499999702
     12,           0.,  0.499998987
     13,  0.400000006,  0.499999791
     14,  0.400000006,  0.400000006
     15,           1.,  0.400000006
     16,          0.5,          0.5
     17,           1.,  0.500001013
     18,  0.400000006,           1.
     19,  0.400000006,  0.649999976
     20,           1.,  0.649999976
** ... 28684 like lines cut
*Element, type=CPS4R
  1,    1,   33, 1640,  140
  2,   33,   34, 1641, 1640
  3,   34,   35, 1642, 1641
  4,   35,   36, 1643, 1642
  5,   36,   37, 1644, 1643
  6,   37,   38, 1645, 1644
  7,   38,   39, 1646, 1645
  8,   39,   40, 1647, 1646
  9,   40,   41, 1648, 1647
 10,   41,   42, 1649, 1648
 11,   42,   43, 1650, 1649
 12,   43,   44, 1651, 1650
 13,   44,   45, 1652, 1651
 14,   45,   46, 1653, 1652
 15,   46,   47, 1654, 1653
 16,   47,   48, 1655, 1654
 17,   48,   49, 1656, 1655
 18,   49,   50, 1657, 1656
 19,   50,   51, 1658, 1657
 20,   51,   52, 1659, 1658
** ... 28419 like lines cut
*Nset, nset=Set-8, generate
     1,  28704,      1
*Elset, elset=Set-8, generate
     1,  28439,      1
** Section: Section-1
*Solid Section, elset=Set-8, material=Material-1
,
*End Part
**  
**
** ASSEMBLY
**
*Assembly, name=Assembly
**  
*Instance, name=Part-1-1, part=Part-1
*End Instance
**  
*Nset, nset=Set-1, instance=Part-1-1
   1,   4,   5,   9, 114, 115, 116, 117, 118, 119, 120, 121, 122, 123, 124, 125
 126, 127, 128, 129, 130, 131, 132, 133, 134, 135, 136, 137, 138, 139, 140, 171
 172, 173, 207, 208, 209, 210, 211, 212, 213, 214, 215, 216, 217, 218, 219, 220
 221, 222, 223, 224, 225, 226, 227, 228, 229, 230, 231, 232, 233, 234, 235, 236
 237, 238, 239, 240, 241, 242, 243, 244, 245, 246, 247, 248, 249, 250, 251, 252
 253,
*Elset, elset=Set-1, instance=Part-1-1
    1,   29,   57,   85,  113,  141,  169,  197,  225,  253,  281,  309,  337,  365,  393,  421
  449,  477,  505,  533,  561,  589,  617,  645,  673,  701,  729,  757,  785,  813,  841,  869
 1036, 1064, 1092, 1120, 1148, 1176, 1204, 1232, 1260, 1288, 1316, 1344, 1372, 1400, 1428, 1456
 1484, 1512, 1540, 1568, 1596, 1624, 1652, 1680, 1708, 1736, 1764, 1792, 1820, 1848, 1876, 1904
 1932, 1960, 1988, 2016, 2044, 2072, 2100, 2128, 2156, 2184, 2212, 2240, 2268, 2296, 2324, 2352
*Nset, nset=Set-2, instance=Part-1-1
   18,   21,   26,   27, 1025, 1026, 1027, 1028, 1029, 1030, 1031, 1032, 1033, 1034, 1035, 1036
 1037, 1038, 1039, 1040, 1041, 1042, 1043, 1044, 1045, 1046, 1047, 1048, 1049, 1050, 1051, 1052
 1053, 1054, 1055, 1056, 1057, 1058, 1059, 1060, 1061, 1062, 1063, 1064, 1065, 1066, 1067, 1068
 1069, 1070, 1071, 1455, 1456, 1457, 1458, 1459, 1460, 1461, 1462, 1463, 1464, 1465, 1466, 1467
 1468, 1469, 1470, 1471, 1472, 1473, 1474, 1475, 1476, 1477, 1478, 1479, 1480, 1481, 1604, 1605
 1606,
*Elset, elset=Set-2, instance=Part-1-1
 12177, 12205, 12233, 12261, 12289, 12317, 12345, 12373, 12401, 12429, 12457, 12485, 12513, 12541, 12569, 12597
 12625, 12653, 12681, 12709, 12737, 12765, 12793, 12821, 12849, 12877, 12905, 12933, 12961, 12989, 13017, 13045
 13073, 13101, 13129, 13157, 13185, 13213, 13241, 13269, 13297, 13325, 13353, 13381, 13409, 13437, 13465, 13493
 23148, 23176, 23204, 23232, 23260, 23288, 23316, 23344, 23372, 23400, 23428, 23456, 23484, 23512, 23540, 23568
 23596, 23624, 23652, 23680, 23708, 23736, 23764, 23792, 23820, 23848, 23876, 23904, 24156, 24184, 24212, 24240
*Nset, nset=Set-3, instance=Part-1-1
   1,   4,   5,   9, 114, 115, 116, 117, 118, 119, 120, 121, 122, 123, 124, 125
 126, 127, 128, 129, 130, 131, 132, 133, 134, 135, 136, 137, 138, 139, 140, 171
 172, 173, 207, 208, 209, 210, 211, 212, 213, 214, 215, 216, 217, 218, 219, 220
 221, 222, 223, 224, 225, 226, 227, 228, 229, 230, 231, 232, 233, 234, 235, 236
 237, 238, 239, 240, 241, 242, 243, 244, 245, 246, 247, 248, 249, 250, 251, 252
 253,
*Elset, elset=Set-3, instance=Part-1-1
    1,   29,   57,   85,  113,  141,  169,  197,  225,  253,  281,  309,  337,  365,  393,  421
  449,  477,  505,  533,  561,  589,  617,  645,  673,  701,  729,  757,  785,  813,  841,  869
 1036, 1064, 1092, 1120, 1148, 1176, 1204, 1232, 1260, 1288, 1316, 1344, 1372, 1400, 1428, 1456
 1484, 1512, 1540, 1568, 1596, 1624, 1652, 1680, 1708, 1736, 1764, 1792, 1820, 1848, 1876, 1904
 1932, 1960, 1988, 2016, 2044, 2072, 2100, 2128, 2156, 2184, 2212, 2240, 2268, 2296, 2324, 2352
*Nset, nset=TIP, instance=Part-1-1
 16,
*End Assembly
** 
** MATERIALS
** 
*Material, name=Material-1
*Elastic
2000., 0.3
** ----------------------------------------------------------------
** 
** STEP: Step-1
** 
*Step, name=Step-1, nlgeom=NO
*Static
1., 1., 1e-05, 1.
** 
** BOUNDARY CONDITIONS
** 
** Name: BC-1 Type: Displacement/Rotation
*Boundary
Set-2, 1, 1
Set-2, 2, 2, 0.0001
** Name: BC-2 Type: Displacement/Rotation
*Boundary
Set-3, 1, 1
Set-3, 2, 2
** 
** OUTPUT REQUESTS
** 
*Restart, write, frequency=0
** 
** FIELD OUTPUT: F-Output-1
** 
*Output, field, variable=PRESELECT
** 
** HISTORY OUTPUT: H-Output-1
** 
*Output, history, variable=PRESELECT
*End Step
