*Heading
** Job name: singleNotch Model name: singleNotch
** Generated by: Abaqus/CAE 2020
*Preprint, echo=NO, model=NO, history=NO, contact=NO
**
** PARTS
**
*Part, name=Part-1
*Node
      1,  0.349999994,           0.
      2,  0.349999994,  0.349999994
      3,           0.,  0.349999994
      4,           0.,           0.
      5,  0.400000006,           0.
      6,  0.400000006,  0.349999994
      7,  0.349999994,  0.400000006
      8,           0.,  0.400000006
      9,           1.,           0.
     10,           1.,  0.349999994
     11,  0.349999994,  0.499999702
     12,           0.,  0.499998987
     13,  0.400000006,  0.499999791
     14,  0.400000006,  0.400000006
     15,           1.,  0.400000006
     16,          0.5,          0.5
     17,           1.,  0.500001013
     18,  0.400000006,           1.
     19,  0.400000006,  0.649999976
     20,           1.,  0.649999976
** ... 16074 like lines cut
*Element, type=CPE4
   1,    1,   33, 1426,  204
   2,   33,   34, 1427, 1426
   3,   34,   35, 1428, 1427
   4,   35,   36, 1429, 1428
   5,   36,   37, 1430, 1429
   6,   37,   38, 1431, 1430
   7,   38,   39, 1432, 1431
   8,   39,   40, 1433, 1432
   9,   40,   41, 1434, 1433
  10,   41,   42, 1435, 1434
  11,   42,   43, 1436, 1435
  12,   43,   44, 1437, 1436
  13,   44,   45, 1438, 1437
  14,   45,   46, 1439, 1438
  15,   46,   47, 1440, 1439
  16,   47,   48, 1441, 1440
  17,   48,   49, 1442, 1441
  18,   49,   50, 1443, 1442
  19,   50,   51, 1444, 1443
  20,   51,   52, 1445, 1444
** ... 15759 like lines cut
*Nset, nset=Set-8, generate
     1,  16094,      1
*Elset, elset=Set-8, generate
     1,  15779,      1
*Elset, elset=_Surf-1_S4, internal, generate
  7281,  10537,     44
*Elset, elset=_Surf-1_S2, internal
 11536, 11580, 11624, 11668, 11712, 11756, 11800, 11844, 11888, 11932, 11976, 12020, 12064, 12108, 12152, 12196
 12240, 12284, 12328, 12372, 12416, 12460, 12504, 12548, 12592, 12636, 12680, 12724, 12768, 12812, 12856, 12900
 12944, 12988, 13032, 13076, 13120, 13164, 13208, 13252, 13296, 13340, 13384, 13428, 14000, 14044, 14088, 14132
 14176, 14220
*Surface, type=ELEMENT, name=Surf-1
_Surf-1_S4, S4
_Surf-1_S2, S2
*Elset, elset=_Surf-2_S4, internal, generate
    1,  2157,    44
*Elset, elset=_Surf-2_S2, internal, generate
 2508,  5764,    44
*Surface, type=ELEMENT, name=Surf-2
_Surf-2_S4, S4
_Surf-2_S2, S2
*Elset, elset=_Surf-3_S3, internal
  1893,  1894,  1895,  1896,  1897,  1898,  1899,  1900,  1901,  1902,  1903,  1904,  1905,  1906,  1907,  1908
  1909,  1910,  1911,  1912,  1913,  1914,  1915,  1916,  1917,  1918,  1919,  1920,  1921,  1922,  1923,  1924
  1925,  1926,  1927,  1928,  1929,  1930,  1931,  1932,  1933,  1934,  1935,  1936, 13385, 13386, 13387, 13388
 13389, 13390, 13391, 13392, 13393, 13394, 13395, 13396, 13397, 13398, 13399, 13400, 13401, 13402, 13403, 13404
 13405, 13406, 13407, 13408, 13409, 13410, 13411, 13412, 13413, 13414, 13415, 13416, 13417, 13418, 13419, 13420
 13421, 13422, 13423, 13424, 13425, 13426, 13427, 13428
*Elset, elset=_Surf-3_S4, internal
  2201,  2245,  2289,  2333,  2377,  2421,  5765,  5809,  5853,  5897,  5941,  5985,  6029,  6073,  6117,  6161
  6205,  6249, 14221, 14265, 14309, 14353, 14397, 14441
*Elset, elset=_Surf-3_S2, internal, generate
 13472,  13956,     44
*Surface, type=ELEMENT, name=Surf-3
_Surf-3_S3, S3
_Surf-3_S4, S4
_Surf-3_S2, S2
*Elset, elset=_Surf-4_S3, internal
  5721,  5722,  5723,  5724,  5725,  5726,  5727,  5728,  5729,  5730,  5731,  5732,  5733,  5734,  5735,  5736
  5737,  5738,  5739,  5740,  5741,  5742,  5743,  5744,  5745,  5746,  5747,  5748,  5749,  5750,  5751,  5752
  5753,  5754,  5755,  5756,  5757,  5758,  5759,  5760,  5761,  5762,  5763,  5764,  7268,  7269,  7270,  7271
  7272,  7273,  7274,  7275,  7276,  7277,  7278,  7279,  7280, 10537, 10538, 10539, 10540, 10541, 10542, 10543
 10544, 10545, 10546, 10547, 10548, 10549, 10550, 10551, 10552, 10553, 10554, 10555, 10556, 10557, 10558, 10559
 10560, 10561, 10562, 10563, 10564, 10565, 10566, 10567, 10568, 10569, 10570, 10571, 10572, 10573, 10574, 10575
 10576, 10577, 10578, 10579, 10580, 11481, 11482, 11483, 11484, 11485, 11486, 11487, 11488, 11489, 11490, 11491
 11492, 14757, 15371
*Elset, elset=_Surf-4_S2, internal
 14660, 14694, 14754, 14787, 14788, 15311, 15367, 15401
*Elset, elset=_Surf-4_S4, internal
 14755, 15276, 15368, 15369
*Surface, type=ELEMENT, name=Surf-4
_Surf-4_S3, S3
_Surf-4_S2, S2
_Surf-4_S4, S4
** Section: Section-1
*Solid Section, elset=Set-8, material=Material-1
,
*End Part
**  
**
** ASSEMBLY
**
*Assembly, name=Assembly
**  
*Instance, name=Part-1-1, part=Part-1
*End Instance
**  
*Nset, nset=Set-1, instance=Part-1-1
   1,   4,   5,   9, 162, 163, 164, 165, 166, 167, 168, 169, 170, 171, 172, 173
 174, 175, 176, 177, 178, 179, 180, 181, 182, 183, 184, 185, 186, 187, 188, 189
 190, 191, 192, 193, 194, 195, 196, 197, 198, 199, 200, 201, 202, 203, 204, 253
 254, 255, 256, 257, 311, 312, 313, 314, 315, 316, 317, 318, 319, 320, 321, 322
 323, 324, 325, 326, 327, 328, 329, 330, 331, 332, 333, 334, 335, 336, 337, 338
 339, 340, 341, 342, 343, 344, 345, 346, 347, 348, 349, 350, 351, 352, 353, 354
 355, 356, 357, 358, 359, 360, 361, 362, 363, 364, 365, 366, 367, 368, 369, 370
 371, 372, 373, 374, 375, 376, 377, 378, 379, 380, 381, 382, 383, 384
*Elset, elset=Set-1, instance=Part-1-1
    1,   45,   89,  133,  177,  221,  265,  309,  353,  397,  441,  485,  529,  573,  617,  661
  705,  749,  793,  837,  881,  925,  969, 1013, 1057, 1101, 1145, 1189, 1233, 1277, 1321, 1365
 1409, 1453, 1497, 1541, 1585, 1629, 1673, 1717, 1761, 1805, 1849, 1893, 1937, 1981, 2025, 2069
 2113, 2157, 2508, 2552, 2596, 2640, 2684, 2728, 2772, 2816, 2860, 2904, 2948, 2992, 3036, 3080
 3124, 3168, 3212, 3256, 3300, 3344, 3388, 3432, 3476, 3520, 3564, 3608, 3652, 3696, 3740, 3784
 3828, 3872, 3916, 3960, 4004, 4048, 4092, 4136, 4180, 4224, 4268, 4312, 4356, 4400, 4444, 4488
 4532, 4576, 4620, 4664, 4708, 4752, 4796, 4840, 4884, 4928, 4972, 5016, 5060, 5104, 5148, 5192
 5236, 5280, 5324, 5368, 5412, 5456, 5500, 5544, 5588, 5632, 5676, 5720, 5764
*Nset, nset=Set-2, instance=Part-1-1
   18,   21,   26,   27,  900,  901,  902,  903,  904,  905,  906,  907,  908,  909,  910,  911
  912,  913,  914,  915,  916,  917,  918,  919,  920,  921,  922,  923,  924,  925,  926,  927
  928,  929,  930,  931,  932,  933,  934,  935,  936,  937,  938,  939,  940,  941,  942,  943
  944,  945,  946,  947,  948,  949,  950,  951,  952,  953,  954,  955,  956,  957,  958,  959
  960,  961,  962,  963,  964,  965,  966,  967,  968,  969,  970,  971,  972,  973, 1126, 1127
 1128, 1129, 1130, 1131, 1132, 1133, 1134, 1135, 1136, 1137, 1138, 1139, 1140, 1141, 1142, 1143
 1144, 1145, 1146, 1147, 1148, 1149, 1150, 1151, 1152, 1153, 1154, 1155, 1156, 1157, 1158, 1159
 1160, 1161, 1162, 1163, 1164, 1165, 1166, 1167, 1168, 1363, 1364, 1365, 1366, 1367
*Elset, elset=Set-2, instance=Part-1-1
  7281,  7325,  7369,  7413,  7457,  7501,  7545,  7589,  7633,  7677,  7721,  7765,  7809,  7853,  7897,  7941
  7985,  8029,  8073,  8117,  8161,  8205,  8249,  8293,  8337,  8381,  8425,  8469,  8513,  8557,  8601,  8645
  8689,  8733,  8777,  8821,  8865,  8909,  8953,  8997,  9041,  9085,  9129,  9173,  9217,  9261,  9305,  9349
  9393,  9437,  9481,  9525,  9569,  9613,  9657,  9701,  9745,  9789,  9833,  9877,  9921,  9965, 10009, 10053
 10097, 10141, 10185, 10229, 10273, 10317, 10361, 10405, 10449, 10493, 10537, 11536, 11580, 11624, 11668, 11712
 11756, 11800, 11844, 11888, 11932, 11976, 12020, 12064, 12108, 12152, 12196, 12240, 12284, 12328, 12372, 12416
 12460, 12504, 12548, 12592, 12636, 12680, 12724, 12768, 12812, 12856, 12900, 12944, 12988, 13032, 13076, 13120
 13164, 13208, 13252, 13296, 13340, 13384, 13428, 14000, 14044, 14088, 14132, 14176, 14220
*Nset, nset=Set-3, instance=Part-1-1
   1,   4,   5,   9, 162, 163, 164, 165, 166, 167, 168, 169, 170, 171, 172, 173
 174, 175, 176, 177, 178, 179, 180, 181, 182, 183, 184, 185, 186, 187, 188, 189
 190, 191, 192, 193, 194, 195, 196, 197, 198, 199, 200, 201, 202, 203, 204, 253
 254, 255, 256, 257, 311, 312, 313, 314, 315, 316, 317, 318, 319, 320, 321, 322
 323, 324, 325, 326, 327, 328, 329, 330, 331, 332, 333, 334, 335, 336, 337, 338
 339, 340, 341, 342, 343, 344, 345, 346, 347, 348, 349, 350, 351, 352, 353, 354
 355, 356, 357, 358, 359, 360, 361, 362, 363, 364, 365, 366, 367, 368, 369, 370
 371, 372, 373, 374, 375, 376, 377, 378, 379, 380, 381, 382, 383, 384
*Elset, elset=Set-3, instance=Part-1-1
    1,   45,   89,  133,  177,  221,  265,  309,  353,  397,  441,  485,  529,  573,  617,  661
  705,  749,  793,  837,  881,  925,  969, 1013, 1057, 1101, 1145, 1189, 1233, 1277, 1321, 1365
 1409, 1453, 1497, 1541, 1585, 1629, 1673, 1717, 1761, 1805, 1849, 1893, 1937, 1981, 2025, 2069
 2113, 2157, 2508, 2552, 2596, 2640, 2684, 2728, 2772, 2816, 2860, 2904, 2948, 2992, 3036, 3080
 3124, 3168, 3212, 3256, 3300, 3344, 3388, 3432, 3476, 3520, 3564, 3608, 3652, 3696, 3740, 3784
 3828, 3872, 3916, 3960, 4004, 4048, 4092, 4136, 4180, 4224, 4268, 4312, 4356, 4400, 4444, 4488
 4532, 4576, 4620, 4664, 4708, 4752, 4796, 4840, 4884, 4928, 4972, 5016, 5060, 5104, 5148, 5192
 5236, 5280, 5324, 5368, 5412, 5456, 5500, 5544, 5588, 5632, 5676, 5720, 5764
*Nset, nset=TIP, instance=Part-1-1
 16,
*End Assembly
** 
** MATERIALS
** 
*Material, name=Material-1
*Elastic
2000., 0.3
** ----------------------------------------------------------------
** 
** STEP: Step-1
** 
*Step, name=Step-1, nlgeom=NO
*Static
1., 1., 1e-05, 1.
** 
** BOUNDARY CONDITIONS
** 
** Name: BC-1 Type: Displacement/Rotation
*Boundary
Set-2, 1, 1
Set-2, 2, 2, 0.0001
** Name: BC-2 Type: Displacement/Rotation
*Boundary
Set-3, 1, 1
Set-3, 2, 2
** 
** OUTPUT REQUESTS
** 
*Restart, write, frequency=0
** 
** FIELD OUTPUT: F-Output-1
** 
*Output, field, variable=PRESELECT
** 
** HISTORY OUTPUT: H-Output-1
** 
*Output, history, variable=PRESELECT
*End Step
