*Heading
** Job name: singleNotch Model name: singleNotch
** Generated by: Abaqus/CAE 2020
*Preprint, echo=NO, model=NO, history=NO, contact=NO
**
** PARTS
**
*Part, name=Part-1
*Node
      1,  0.439999998,  0.560000002
      2,  0.439999998,           1.
      3,           0.,           1.
      4,           0.,  0.560000002
      5,           0.,  0.529999971
      6,  0.439999998,  0.529999971
      7,  0.469999999,  0.560000002
      8,  0.469999999,           1.
      9,  0.439999998,  0.500000119
     10,           0.,  0.500001013
     11,           1.,  0.560000002
     12,           1.,           1.
     13,           1.,  0.500001013
     14,           1.,  0.529999971
     15,  0.469999999,  0.529999971
     16,          0.5,          0.5
     17,  0.469999999,   0.50000006
     18,  0.469999999,   0.49999994
     19,  0.469999999,  0.469999999
     20,           1.,  0.469999999
** ... 11187 like lines cut
*Element, type=CPE4
   1,    1,   33, 1349,  168
   2,   33,   34, 1350, 1349
   3,   34,   35, 1351, 1350
   4,   35,   36, 1352, 1351
   5,   36,   37, 1353, 1352
   6,   37,   38, 1354, 1353
   7,   38,   39, 1355, 1354
   8,   39,   40, 1356, 1355
   9,   40,   41, 1357, 1356
  10,   41,   42, 1358, 1357
  11,   42,   43, 1359, 1358
  12,   43,   44, 1360, 1359
  13,   44,   45, 1361, 1360
  14,   45,   46, 1362, 1361
  15,   46,   47, 1363, 1362
  16,   47,   48, 1364, 1363
  17,   48,   49, 1365, 1364
  18,   49,   50, 1366, 1365
  19,   50,   51, 1367, 1366
  20,   51,   52, 1368, 1367
** ... 10972 like lines cut
*Nset, nset=Set-8, generate
     1,  11207,      1
*Elset, elset=Set-8, generate
     1,  10992,      1
*Elset, elset=_Surf-1_S2, internal
   35,   70,  105,  140,  175,  210,  245,  280,  315,  350,  385,  420,  455,  490,  525,  560
  595,  630,  665,  700,  735,  770,  805,  840,  875,  910,  945,  980, 1015, 1050, 1085, 1120
 1155, 1190, 1225, 1330, 1365
*Elset, elset=_Surf-1_S4, internal, generate
 1436,  2871,    35
*Surface, type=ELEMENT, name=Surf-1
_Surf-1_S2, S2
_Surf-1_S4, S4
*Elset, elset=_Surf-3_S3, internal
 1191, 1192, 1193, 1194, 1195, 1196, 1197, 1198, 1199, 1200, 1201, 1202, 1203, 1204, 1205, 1206
 1207, 1208, 1209, 1210, 1211, 1212, 1213, 1214, 1215, 1216, 1217, 1218, 1219, 1220, 1221, 1222
 1223, 1224, 1225, 1434, 1435, 7984, 7985, 9176, 9177, 9178, 9179, 9180, 9181, 9182, 9183, 9184
 9185, 9186, 9187, 9188, 9189, 9190, 9191, 9192, 9193, 9194, 9195, 9196, 9197, 9198, 9199, 9200
 9201, 9202, 9203, 9204, 9205, 9206, 9207, 9208, 9209, 9210
*Elset, elset=_Surf-3_S4, internal
 1226, 1261, 9211, 9246
*Surface, type=ELEMENT, name=Surf-3
_Surf-3_S3, S3
_Surf-3_S4, S4
*Elset, elset=_Surf-2_S3, internal, generate
 7874,  7915,     1
*Elset, elset=_Surf-2_S4, internal
  7986,  8021,  8056,  8091,  8126,  8161,  8196,  8231,  8266,  8301,  8336,  8371,  8406,  8441,  8476,  8511
  8546,  8581,  8616,  8651,  8686,  8721,  8756,  8791,  8826,  8861,  8896,  8931,  8966,  9001,  9036,  9071
  9106,  9141,  9176, 10944, 10974
*Surface, type=ELEMENT, name=Surf-2
_Surf-2_S3, S3
_Surf-2_S4, S4
*Elset, elset=_Surf-4_S3, internal, generate
 2871,  2905,     1
*Elset, elset=_Surf-4_S1, internal
  2906,  2907,  2908,  2909,  2910,  2911,  2912,  2913,  2914,  2915,  9526, 10189
*Elset, elset=_Surf-4_S2, internal
 10025, 10733
*Elset, elset=_Surf-4_S4, internal
 4676, 4853, 5030, 5207, 5384, 5561, 5738, 5915, 6092, 6269, 6446, 6488, 6530, 6572, 6614, 6656
 6698, 6740, 6782, 6824, 6866, 6908, 6950, 6992, 7034, 7076, 7118, 7160, 7202, 7244, 7286, 7328
 7370, 7412, 7454, 7496, 7538, 7580, 7622, 7664, 7706, 7748, 7790, 7832, 7874
*Surface, type=ELEMENT, name=Surf-4
_Surf-4_S3, S3
_Surf-4_S1, S1
_Surf-4_S2, S2
_Surf-4_S4, S4
** Section: Section-1
*Solid Section, elset=Set-8, material=Material-1
,
*End Part
**  
**
** ASSEMBLY
**
*Assembly, name=Assembly
**  
*Instance, name=Part-1-1, part=Part-1
*End Instance
**  
*Nset, nset=Set-1, instance=Part-1-1
   4,   5,   6, 169, 170, 171, 172, 173, 174, 175, 176, 177, 178, 179, 180, 181
 182, 183, 184, 185, 186, 187, 188, 189, 190, 191, 192, 193, 194, 195, 196, 197
 198, 199, 200, 201, 202, 204
*Elset, elset=Set-1, instance=Part-1-1
 1226, 1227, 1228, 1229, 1230, 1231, 1232, 1233, 1234, 1235, 1236, 1237, 1238, 1239, 1240, 1241
 1242, 1243, 1244, 1245, 1246, 1247, 1248, 1249, 1250, 1251, 1252, 1253, 1254, 1255, 1256, 1257
 1258, 1259, 1260, 1261, 1367, 1369, 1371, 1373, 1375, 1377, 1379, 1381, 1383, 1385, 1387, 1389
 1391, 1393, 1395, 1397, 1399, 1401, 1403, 1405, 1407, 1409, 1411, 1413, 1415, 1417, 1419, 1421
 1423, 1425, 1427, 1429, 1431, 1433, 1435
*Nset, nset=Set-2, instance=Part-1-1
   18,   26,   27, 1116, 1117, 1118, 1119, 1120, 1121, 1122, 1123, 1124, 1125, 1126, 1127, 1128
 1129, 1130, 1131, 1132, 1133, 1134, 1135, 1136, 1137, 1138, 1139, 1140, 1141, 1142, 1143, 1144
 1145, 1146, 1147, 1148, 1149, 1334, 1335, 1336, 1337
*Elset, elset=Set-2, instance=Part-1-1
  7917,  7919,  7921,  7923,  7925,  7927,  7929,  7931,  7933,  7935,  7937,  7939,  7941,  7943,  7945,  7947
  7949,  7951,  7953,  7955,  7957,  7959,  7961,  7963,  7965,  7967,  7969,  7971,  7973,  7975,  7977,  7979
  7981,  7983,  7985, 10072, 10079, 10081, 10090, 10093
*Nset, nset=Set-3, instance=Part-1-1
   4,   5,   6, 169, 170, 171, 172, 173, 174, 175, 176, 177, 178, 179, 180, 181
 182, 183, 184, 185, 186, 187, 188, 189, 190, 191, 192, 193, 194, 195, 196, 197
 198, 199, 200, 201, 202, 204
*Elset, elset=Set-3, instance=Part-1-1
 1226, 1227, 1228, 1229, 1230, 1231, 1232, 1233, 1234, 1235, 1236, 1237, 1238, 1239, 1240, 1241
 1242, 1243, 1244, 1245, 1246, 1247, 1248, 1249, 1250, 1251, 1252, 1253, 1254, 1255, 1256, 1257
 1258, 1259, 1260, 1261, 1367, 1369, 1371, 1373, 1375, 1377, 1379, 1381, 1383, 1385, 1387, 1389
 1391, 1393, 1395, 1397, 1399, 1401, 1403, 1405, 1407, 1409, 1411, 1413, 1415, 1417, 1419, 1421
 1423, 1425, 1427, 1429, 1431, 1433, 1435
*Nset, nset=TIP, instance=Part-1-1
 16,
*End Assembly
** 
** MATERIALS
** 
*Material, name=Material-1
*Elastic
2000., 0.3
** ----------------------------------------------------------------
** 
** STEP: Step-1
** 
*Step, name=Step-1, nlgeom=NO
*Static
1., 1., 1e-05, 1.
** 
** BOUNDARY CONDITIONS
** 
** Name: BC-1 Type: Displacement/Rotation
*Boundary
Set-2, 1, 1
Set-2, 2, 2, 0.0001
** Name: BC-2 Type: Displacement/Rotation
*Boundary
Set-3, 1, 1
Set-3, 2, 2
** 
** OUTPUT REQUESTS
** 
*Restart, write, frequency=0
** 
** FIELD OUTPUT: F-Output-1
** 
*Output, field, variable=PRESELECT
** 
** HISTORY OUTPUT: H-Output-1
** 
*Output, history, variable=PRESELECT
*End Step
