*Heading
** Job name: singleNotch Model name: singleNotch
** Generated by: Abaqus/CAE 2020
*Preprint, echo=NO, model=NO, history=NO, contact=NO
**
** PARTS
**
*Part, name=Part-1
*Node
      1,  0.476000011,           0.
      2,  0.476000011,  0.476000011
      3,           0.,  0.476000011
      4,           0.,           0.
      5,  0.492000014,           0.
      6,  0.492000014,  0.476000011
      7,  0.476000011,  0.492000014
      8,           0.,  0.492000014
      9,           1.,           0.
     10,           1.,  0.476000011
     11,  0.476000011,   0.49999994
     12,           0.,  0.499998987
     13,  0.492000014,   0.49999997
     14,  0.492000014,  0.492000014
     15,           1.,  0.492000014
     16,          0.5,          0.5
     17,           1.,  0.500001013
     18,  0.492000014,           1.
     19,  0.492000014,  0.523999989
     20,           1.,  0.523999989
** ... 32557 like lines cut
*Element, type=CPE4
   1,    1,   33, 3183,  266
   2,   33,   34, 3184, 3183
   3,   34,   35, 3185, 3184
   4,   35,   36, 3186, 3185
   5,   36,   37, 3187, 3186
   6,   37,   38, 3188, 3187
   7,   38,   39, 3189, 3188
   8,   39,   40, 3190, 3189
   9,   40,   41, 3191, 3190
  10,   41,   42, 3192, 3191
  11,   42,   43, 3193, 3192
  12,   43,   44, 3194, 3193
  13,   44,   45, 3195, 3194
  14,   45,   46, 3196, 3195
  15,   46,   47, 3197, 3196
  16,   47,   48, 3198, 3197
  17,   48,   49, 3199, 3198
  18,   49,   50, 3200, 3199
  19,   50,   51, 3201, 3200
  20,   51,   52, 3202, 3201
** ... 32225 like lines cut
*Nset, nset=Set-8, generate
     1,  32577,      1
*Elset, elset=Set-8, generate
     1,  32245,      1
*Elset, elset=_Surf-1_S4, internal, generate
 13965,  17682,     59
*Elset, elset=_Surf-1_S2, internal
 24149, 24208, 24267, 24326, 24385, 24444, 24503, 24562, 24621, 24680, 24739, 24798, 24857, 24916, 24975, 25034
 25093, 25152, 25211, 25270, 25329, 25388, 25447, 25506, 25565, 25624, 25683, 25742, 25801, 25860, 25919, 25978
 26037, 26096, 26155, 26214, 26273, 26332, 26391, 26450, 26509, 26568, 26627, 26686, 26745, 26804, 26863, 26922
 26981, 27040, 27099, 27158, 27217, 27276, 27335, 27394, 27453, 27512, 27571, 27630, 27749, 27808
*Surface, type=ELEMENT, name=Surf-1
_Surf-1_S4, S4
_Surf-1_S2, S2
*Elset, elset=_Surf-2_S4, internal, generate
    1,  3600,    59
*Elset, elset=_Surf-2_S2, internal, generate
 3837,  7554,    59
*Surface, type=ELEMENT, name=Surf-2
_Surf-2_S4, S4
_Surf-2_S2, S2
*Elset, elset=_Surf-3_S3, internal
  3482,  3483,  3484,  3485,  3486,  3487,  3488,  3489,  3490,  3491,  3492,  3493,  3494,  3495,  3496,  3497
  3498,  3499,  3500,  3501,  3502,  3503,  3504,  3505,  3506,  3507,  3508,  3509,  3510,  3511,  3512,  3513
  3514,  3515,  3516,  3517,  3518,  3519,  3520,  3521,  3522,  3523,  3524,  3525,  3526,  3527,  3528,  3529
  3530,  3531,  3532,  3533,  3534,  3535,  3536,  3537,  3538,  3539,  3540, 27572, 27573, 27574, 27575, 27576
 27577, 27578, 27579, 27580, 27581, 27582, 27583, 27584, 27585, 27586, 27587, 27588, 27589, 27590, 27591, 27592
 27593, 27594, 27595, 27596, 27597, 27598, 27599, 27600, 27601, 27602, 27603, 27604, 27605, 27606, 27607, 27608
 27609, 27610, 27611, 27612, 27613, 27614, 27615, 27616, 27617, 27618, 27619, 27620, 27621, 27622, 27623, 27624
 27625, 27626, 27627, 27628, 27629, 27630
*Elset, elset=_Surf-3_S4, internal
  3659,  3719,  7555, 27809, 27869
*Elset, elset=_Surf-3_S2, internal
 27690,
*Surface, type=ELEMENT, name=Surf-3
_Surf-3_S3, S3
_Surf-3_S4, S4
_Surf-3_S2, S2
*Elset, elset=_Surf-4_S3, internal
  7496,  7497,  7498,  7499,  7500,  7501,  7502,  7503,  7504,  7505,  7506,  7507,  7508,  7509,  7510,  7511
  7512,  7513,  7514,  7515,  7516,  7517,  7518,  7519,  7520,  7521,  7522,  7523,  7524,  7525,  7526,  7527
  7528,  7529,  7530,  7531,  7532,  7533,  7534,  7535,  7536,  7537,  7538,  7539,  7540,  7541,  7542,  7543
  7544,  7545,  7546,  7547,  7548,  7549,  7550,  7551,  7552,  7553,  7554, 13955, 13956, 13957, 13958, 13959
 13960, 13961, 13962, 13963, 13964, 17682, 17683, 17684, 17685, 17686, 17687, 17688, 17689, 17690, 17691, 17692
 17693, 17694, 17695, 17696, 17697, 17698, 17699, 17700, 17701, 17702, 17703, 17704, 17705, 17706, 17707, 17708
 17709, 17710, 17711, 17712, 17713, 17714, 17715, 17716, 17717, 17718, 17719, 17720, 17721, 17722, 17723, 17724
 17725, 17726, 17727, 17728, 17729, 17730, 17731, 17732, 17733, 17734, 17735, 17736, 17737, 17738, 17739, 17740
 24081, 24082, 24083, 24084, 24085, 24086, 24087, 24088, 24089, 24090
*Elset, elset=_Surf-4_S2, internal
 29784,
*Elset, elset=_Surf-4_S4, internal
 30533,
*Surface, type=ELEMENT, name=Surf-4
_Surf-4_S3, S3
_Surf-4_S2, S2
_Surf-4_S4, S4
** Section: Section-1
*Solid Section, elset=Set-8, material=Material-1
,
*End Part
**  
**
** ASSEMBLY
**
*Assembly, name=Assembly
**  
*Instance, name=Part-1-1, part=Part-1
*End Instance
**  
*Nset, nset=Set-1, instance=Part-1-1
   1,   4,   5,   9, 208, 209, 210, 211, 212, 213, 214, 215, 216, 217, 218, 219
 220, 221, 222, 223, 224, 225, 226, 227, 228, 229, 230, 231, 232, 233, 234, 235
 236, 237, 238, 239, 240, 241, 242, 243, 244, 245, 246, 247, 248, 249, 250, 251
 252, 253, 254, 255, 256, 257, 258, 259, 260, 261, 262, 263, 264, 265, 266, 326
 388, 389, 390, 391, 392, 393, 394, 395, 396, 397, 398, 399, 400, 401, 402, 403
 404, 405, 406, 407, 408, 409, 410, 411, 412, 413, 414, 415, 416, 417, 418, 419
 420, 421, 422, 423, 424, 425, 426, 427, 428, 429, 430, 431, 432, 433, 434, 435
 436, 437, 438, 439, 440, 441, 442, 443, 444, 445, 446, 447, 448, 449, 450
*Elset, elset=Set-1, instance=Part-1-1
    1,   60,  119,  178,  237,  296,  355,  414,  473,  532,  591,  650,  709,  768,  827,  886
  945, 1004, 1063, 1122, 1181, 1240, 1299, 1358, 1417, 1476, 1535, 1594, 1653, 1712, 1771, 1830
 1889, 1948, 2007, 2066, 2125, 2184, 2243, 2302, 2361, 2420, 2479, 2538, 2597, 2656, 2715, 2774
 2833, 2892, 2951, 3010, 3069, 3128, 3187, 3246, 3305, 3364, 3423, 3482, 3541, 3600, 3837, 3896
 3955, 4014, 4073, 4132, 4191, 4250, 4309, 4368, 4427, 4486, 4545, 4604, 4663, 4722, 4781, 4840
 4899, 4958, 5017, 5076, 5135, 5194, 5253, 5312, 5371, 5430, 5489, 5548, 5607, 5666, 5725, 5784
 5843, 5902, 5961, 6020, 6079, 6138, 6197, 6256, 6315, 6374, 6433, 6492, 6551, 6610, 6669, 6728
 6787, 6846, 6905, 6964, 7023, 7082, 7141, 7200, 7259, 7318, 7377, 7436, 7495, 7554
*Nset, nset=Set-2, instance=Part-1-1
   18,   21,   26,   27, 2095, 2096, 2097, 2098, 2099, 2100, 2101, 2102, 2103, 2104, 2105, 2106
 2107, 2108, 2109, 2110, 2111, 2112, 2113, 2114, 2115, 2116, 2117, 2118, 2119, 2120, 2121, 2122
 2123, 2124, 2125, 2126, 2127, 2128, 2129, 2130, 2131, 2132, 2133, 2134, 2135, 2136, 2137, 2138
 2139, 2140, 2141, 2142, 2143, 2144, 2145, 2146, 2147, 2148, 2149, 2150, 2151, 2152, 2153, 2154
 2155, 2156, 2157, 2877, 2878, 2879, 2880, 2881, 2882, 2883, 2884, 2885, 2886, 2887, 2888, 2889
 2890, 2891, 2892, 2893, 2894, 2895, 2896, 2897, 2898, 2899, 2900, 2901, 2902, 2903, 2904, 2905
 2906, 2907, 2908, 2909, 2910, 2911, 2912, 2913, 2914, 2915, 2916, 2917, 2918, 2919, 2920, 2921
 2922, 2923, 2924, 2925, 2926, 2927, 2928, 2929, 2930, 2931, 2932, 2933, 2934, 2935, 3171
*Elset, elset=Set-2, instance=Part-1-1
 13965, 14024, 14083, 14142, 14201, 14260, 14319, 14378, 14437, 14496, 14555, 14614, 14673, 14732, 14791, 14850
 14909, 14968, 15027, 15086, 15145, 15204, 15263, 15322, 15381, 15440, 15499, 15558, 15617, 15676, 15735, 15794
 15853, 15912, 15971, 16030, 16089, 16148, 16207, 16266, 16325, 16384, 16443, 16502, 16561, 16620, 16679, 16738
 16797, 16856, 16915, 16974, 17033, 17092, 17151, 17210, 17269, 17328, 17387, 17446, 17505, 17564, 17623, 17682
 24149, 24208, 24267, 24326, 24385, 24444, 24503, 24562, 24621, 24680, 24739, 24798, 24857, 24916, 24975, 25034
 25093, 25152, 25211, 25270, 25329, 25388, 25447, 25506, 25565, 25624, 25683, 25742, 25801, 25860, 25919, 25978
 26037, 26096, 26155, 26214, 26273, 26332, 26391, 26450, 26509, 26568, 26627, 26686, 26745, 26804, 26863, 26922
 26981, 27040, 27099, 27158, 27217, 27276, 27335, 27394, 27453, 27512, 27571, 27630, 27749, 27808
*Nset, nset=Set-3, instance=Part-1-1
   1,   4,   5,   9, 208, 209, 210, 211, 212, 213, 214, 215, 216, 217, 218, 219
 220, 221, 222, 223, 224, 225, 226, 227, 228, 229, 230, 231, 232, 233, 234, 235
 236, 237, 238, 239, 240, 241, 242, 243, 244, 245, 246, 247, 248, 249, 250, 251
 252, 253, 254, 255, 256, 257, 258, 259, 260, 261, 262, 263, 264, 265, 266, 326
 388, 389, 390, 391, 392, 393, 394, 395, 396, 397, 398, 399, 400, 401, 402, 403
 404, 405, 406, 407, 408, 409, 410, 411, 412, 413, 414, 415, 416, 417, 418, 419
 420, 421, 422, 423, 424, 425, 426, 427, 428, 429, 430, 431, 432, 433, 434, 435
 436, 437, 438, 439, 440, 441, 442, 443, 444, 445, 446, 447, 448, 449, 450
*Elset, elset=Set-3, instance=Part-1-1
    1,   60,  119,  178,  237,  296,  355,  414,  473,  532,  591,  650,  709,  768,  827,  886
  945, 1004, 1063, 1122, 1181, 1240, 1299, 1358, 1417, 1476, 1535, 1594, 1653, 1712, 1771, 1830
 1889, 1948, 2007, 2066, 2125, 2184, 2243, 2302, 2361, 2420, 2479, 2538, 2597, 2656, 2715, 2774
 2833, 2892, 2951, 3010, 3069, 3128, 3187, 3246, 3305, 3364, 3423, 3482, 3541, 3600, 3837, 3896
 3955, 4014, 4073, 4132, 4191, 4250, 4309, 4368, 4427, 4486, 4545, 4604, 4663, 4722, 4781, 4840
 4899, 4958, 5017, 5076, 5135, 5194, 5253, 5312, 5371, 5430, 5489, 5548, 5607, 5666, 5725, 5784
 5843, 5902, 5961, 6020, 6079, 6138, 6197, 6256, 6315, 6374, 6433, 6492, 6551, 6610, 6669, 6728
 6787, 6846, 6905, 6964, 7023, 7082, 7141, 7200, 7259, 7318, 7377, 7436, 7495, 7554
*Nset, nset=TIP, instance=Part-1-1
 16,
*End Assembly
** 
** MATERIALS
** 
*Material, name=Material-1
*Elastic
2000., 0.3
** ----------------------------------------------------------------
** 
** STEP: Step-1
** 
*Step, name=Step-1, nlgeom=NO
*Static
1., 1., 1e-05, 1.
** 
** BOUNDARY CONDITIONS
** 
** Name: BC-1 Type: Displacement/Rotation
*Boundary
Set-2, 1, 1
Set-2, 2, 2, 0.0001
** Name: BC-2 Type: Displacement/Rotation
*Boundary
Set-3, 1, 1
Set-3, 2, 2
** 
** OUTPUT REQUESTS
** 
*Restart, write, frequency=0
** 
** FIELD OUTPUT: F-Output-1
** 
*Output, field, variable=PRESELECT
** 
** HISTORY OUTPUT: H-Output-1
** 
*Output, history, variable=PRESELECT
*End Step
